*SPEF "1481-1998"
*DESIGN "pit_top"
*DATE "Sat May  4 11:31:38 2024"
*VENDOR "Synopsys, Inc."
*PROGRAM "icc2 /eda/synopsys/icc2/V-2023.12/linux64/nwtn/bin/icc2_exec"
*VERSION "V-2023.12 Nov 23, 2023"
*DESIGN_FLOW "ICC2 SPEF DR"
*DIVIDER /
*DELIMITER :
*BUS_DELIMITER [ ]
*T_UNIT 1 NS
*C_UNIT 1 FF
*R_UNIT 1 OHM
*L_UNIT 1 HENRY

// XY_UNIT 1 UM
// PARASITIC_TECH maxTLU at -40.000 degree

*NAME_MAP
*1 wb_dat_o[15]
*2 wb_dat_o[14]
*3 wb_dat_o[13]
*4 wb_dat_o[12]
*5 wb_dat_o[11]
*6 wb_dat_o[10]
*7 wb_dat_o[9]
*8 wb_dat_o[8]
*9 wb_dat_o[7]
*10 wb_dat_o[6]
*11 wb_dat_o[5]
*12 wb_dat_o[4]
*13 wb_dat_o[3]
*14 wb_dat_o[2]
*15 wb_dat_o[1]
*16 wb_dat_o[0]
*17 wb_ack_o
*18 wb_clk_i
*19 wb_rst_i
*20 arst_i
*21 wb_adr_i[2]
*22 wb_adr_i[1]
*23 wb_adr_i[0]
*24 wb_dat_i[15]
*25 wb_dat_i[14]
*26 wb_dat_i[13]
*27 wb_dat_i[12]
*28 wb_dat_i[11]
*29 wb_dat_i[10]
*30 wb_dat_i[9]
*31 wb_dat_i[8]
*32 wb_dat_i[7]
*33 wb_dat_i[6]
*34 wb_dat_i[5]
*35 wb_dat_i[4]
*36 wb_dat_i[3]
*37 wb_dat_i[2]
*38 wb_dat_i[1]
*39 wb_dat_i[0]
*40 wb_we_i
*41 wb_stb_i
*42 wb_cyc_i
*43 wb_sel_i[1]
*44 wb_sel_i[0]
*45 pit_o
*46 pit_irq_o
*47 cnt_flag_o
*48 cnt_sync_o
*49 ext_sync_i
*50 VDD
*51 VSS
*52 wishbone/bus_wait_state_reg
*53 wishbone/addr_latch_reg_2_
*54 wishbone/addr_latch_reg_1_
*55 wishbone/addr_latch_reg_0_
*56 wishbone/HFSBUF_153_8
*57 ZCTSBUF_975_10
*58 counter/ctmTdsLR_1_150
*59 ZCTSBUF_2000_11
*60 wishbone/U7
*61 wishbone/U8
*62 wishbone/U9
*63 wishbone/U10
*64 wishbone/SGI28_1
*65 wishbone/SGI28_2
*66 wishbone/SGI28_3
*67 wishbone/SGI28_4
*68 wishbone/SGI28_5
*69 wishbone/SGI28_6
*70 wishbone/SGI28_7
*71 wishbone/U16
*72 wishbone/U17
*73 wishbone/U18
*74 counter/ctmTdsLR_2_151
*75 counter/ctmTdsLR_3_152
*76 wishbone/U22
*77 wishbone/U23
*78 wishbone/U24
*79 wishbone/U25
*80 wishbone/U26
*81 wishbone/U27
*82 wishbone/U28
*83 wishbone/U29
*84 wishbone/U30
*85 wishbone/U31
*86 wishbone/U32
*87 wishbone/U33
*88 regs/mod_value_reg_15_
*89 regs/mod_value_reg_14_
*90 regs/mod_value_reg_13_
*91 regs/mod_value_reg_12_
*92 regs/mod_value_reg_11_
*93 regs/mod_value_reg_10_
*94 regs/mod_value_reg_9_
*95 regs/mod_value_reg_8_
*96 regs/mod_value_reg_7_
*97 regs/mod_value_reg_6_
*98 regs/mod_value_reg_5_
*99 regs/mod_value_reg_4_
*100 regs/mod_value_reg_3_
*101 regs/mod_value_reg_2_
*102 regs/mod_value_reg_1_
*103 regs/mod_value_reg_0_
*104 regs/pit_slave_reg
*105 regs/pit_pre_reg_3_
*106 regs/pit_pre_reg_2_
*107 regs/pit_pre_reg_1_
*108 regs/pit_pre_reg_0_
*109 regs/cnt_sync_o_reg
*110 regs/pit_ien_reg
*111 regs/pit_flg_clr_reg
*112 regs/pit_irq_o_reg
*113 regs/U3
*114 regs/U4
*115 regs/U5
*116 regs/U6
*117 regs/U7
*118 regs/U8
*119 regs/U9
*120 regs/U10
*121 regs/U11
*122 regs/U12
*123 regs/U13
*124 regs/U14
*125 prescale/ctmTdsLR_1_157
*126 regs/copt_h_inst_158
*127 regs/U16
*128 prescale/copt_h_inst_159
*129 regs/U18
*130 regs/U19
*131 regs/U20
*132 regs/U21
*133 regs/U22
*134 regs/U23
*135 regs/U24
*136 regs/U25
*137 regs/U26
*138 regs/U27
*139 regs/U28
*140 regs/U29
*141 regs/U30
*142 regs/U31
*143 regs/U32
*144 regs/U33
*145 regs/U34
*146 regs/U35
*147 regs/U36
*148 regs/U37
*149 regs/U38
*150 regs/U39
*151 regs/U40
*152 regs/U41
*153 regs/U42
*154 regs/U43
*155 regs/U44
*156 regs/U45
*157 regs/U46
*158 regs/U47
*159 regs/U48
*160 regs/U49
*161 regs/U50
*162 regs/U51
*163 regs/U52
*164 prescale/cnt_n_reg_0_
*165 prescale/cnt_n_reg_1_
*166 prescale/cnt_n_reg_2_
*167 prescale/cnt_n_reg_3_
*168 prescale/cnt_n_reg_4_
*169 prescale/cnt_n_reg_5_
*170 prescale/cnt_n_reg_6_
*171 prescale/cnt_n_reg_7_
*172 prescale/cnt_n_reg_8_
*173 prescale/cnt_n_reg_9_
*174 prescale/cnt_n_reg_10_
*175 prescale/cnt_n_reg_11_
*176 prescale/cnt_n_reg_12_
*177 prescale/cnt_n_reg_13_
*178 prescale/cnt_n_reg_14_
*179 prescale/U3
*180 prescale/U4
*181 prescale/U5
*182 prescale/U6
*183 prescale/U7
*184 prescale/U8
*185 prescale/U9
*186 prescale/U10
*187 prescale/U11
*188 prescale/U12
*189 prescale/U13
*190 prescale/U14
*191 prescale/U15
*192 prescale/U16
*193 prescale/U17
*194 prescale/U18
*195 prescale/U19
*196 prescale/U20
*197 prescale/U21
*198 prescale/U22
*199 prescale/U23
*200 prescale/U24
*201 prescale/U25
*202 prescale/U26
*203 prescale/U27
*204 prescale/U28
*205 prescale/U29
*206 prescale/U30
*207 prescale/U31
*208 prescale/U32
*209 prescale/U33
*210 prescale/U34
*211 prescale/U35
*212 prescale/U36
*213 prescale/U37
*214 prescale/U38
*215 prescale/U39
*216 prescale/U40
*217 prescale/U41
*218 prescale/U42
*219 prescale/U43
*220 prescale/U44
*221 prescale/U45
*222 prescale/U46
*223 prescale/copt_h_inst_160
*224 prescale/U48
*225 prescale/U49
*226 prescale/U50
*227 prescale/U51
*228 prescale/U52
*229 prescale/U53
*230 prescale/U54
*231 prescale/U55
*232 prescale/U56
*233 prescale/U57
*234 prescale/U58
*235 prescale/U59
*236 prescale/U60
*237 prescale/U61
*238 prescale/add_122_aco/U1_1_13
*239 prescale/add_122_aco/U1_1_12
*240 prescale/add_122_aco/U1_1_11
*241 prescale/add_122_aco/U1_1_10
*242 prescale/add_122_aco/U1_1_9
*243 prescale/add_122_aco/U1_1_8
*244 prescale/add_122_aco/U1_1_7
*245 prescale/add_122_aco/U1_1_6
*246 prescale/add_122_aco/U1_1_5
*247 prescale/add_122_aco/U1_1_4
*248 prescale/add_122_aco/U1_1_3
*249 prescale/add_122_aco/U1_1_2
*250 prescale/add_122_aco/U1_1_1
*251 prescale/add_122_aco/U1
*252 prescale/add_122_aco/U2
*253 counter/cnt_n_reg_0_
*254 counter/cnt_n_reg_15_
*255 counter/cnt_n_reg_1_
*256 counter/cnt_n_reg_2_
*257 counter/cnt_n_reg_3_
*258 counter/cnt_n_reg_4_
*259 counter/cnt_n_reg_5_
*260 counter/cnt_n_reg_6_
*261 counter/cnt_n_reg_7_
*262 counter/cnt_n_reg_8_
*263 counter/cnt_n_reg_9_
*264 counter/cnt_n_reg_10_
*265 counter/cnt_n_reg_11_
*266 counter/cnt_n_reg_12_
*267 counter/cnt_n_reg_13_
*268 counter/cnt_n_reg_14_
*269 counter/cnt_flag_o_reg
*270 counter/pit_o_reg
*271 counter/U3
*272 counter/U4
*273 counter/U5
*274 counter/U6
*275 counter/U7
*276 counter/U8
*277 counter/U9
*278 counter/U10
*279 counter/U11
*280 counter/U12
*281 counter/U13
*282 counter/U14
*283 counter/U15
*284 counter/U16
*285 counter/U17
*286 counter/U18
*287 counter/U19
*288 counter/U20
*289 counter/U21
*290 counter/U22
*291 counter/U23
*292 counter/U24
*293 counter/U25
*294 counter/U26
*295 counter/U27
*296 counter/U28
*297 regs/ctmTdsLR_1_155
*298 regs/ctmTdsLR_2_156
*299 regs/copt_h_inst_161
*300 wishbone/copt_h_inst_162
*301 wishbone/copt_h_inst_163
*302 wishbone/copt_h_inst_164
*303 wishbone/copt_h_inst_165
*304 counter/copt_h_inst_166
*305 counter/U34
*306 counter/U35
*307 counter/U36
*308 counter/U37
*309 counter/U38
*310 counter/U39
*311 counter/U40
*312 counter/U41
*313 counter/U42
*314 counter/U43
*315 counter/U44
*316 counter/U45
*317 counter/U46
*318 counter/U47
*319 counter/U48
*320 counter/U49
*321 counter/U50
*322 counter/U51
*323 counter/U52
*324 counter/U53
*325 counter/U54
*326 counter/add_76/U1_1_14
*327 counter/add_76/U1_1_13
*328 counter/add_76/U1_1_12
*329 counter/add_76/U1_1_11
*330 counter/add_76/U1_1_10
*331 counter/add_76/U1_1_9
*332 counter/add_76/U1_1_8
*333 counter/add_76/U1_1_7
*334 counter/add_76/U1_1_6
*335 counter/add_76/U1_1_5
*336 counter/add_76/U1_1_4
*337 counter/add_76/U1_1_3
*338 counter/add_76/U1_1_2
*339 counter/add_76/U1_1_1
*340 counter/add_76/U1
*341 counter/add_76/U2
*342 wishbone/SGI28_0
*343 counter/ctmTdsLR_4_153
*344 counter/ctmTdsLR_5_154
*345 prescale/add_122_aco/copt_h_inst_167
*346 counter/copt_h_inst_168
*347 counter/copt_h_inst_169
*348 prescale/copt_h_inst_171
*349 prescale/copt_h_inst_172
*350 prescale/copt_h_inst_173
*351 counter/copt_h_inst_174
*352 regs/copt_h_inst_175
*353 regs/copt_h_inst_176
*354 regs/copt_h_inst_177
*355 counter/copt_h_inst_178
*356 counter/copt_h_inst_179
*357 counter/copt_h_inst_180
*358 xofiller!SHFILL1!x128800y100000
*359 counter/add_76/copt_h_inst_182
*360 counter/copt_h_inst_183
*361 counter/copt_h_inst_184
*362 counter/copt_h_inst_185
*363 counter/copt_h_inst_186
*364 counter/copt_h_inst_187
*365 counter/copt_h_inst_188
*366 counter/copt_h_inst_189
*367 counter/copt_h_inst_190
*368 counter/copt_h_inst_191
*369 counter/add_76/copt_h_inst_192
*370 prescale/copt_h_inst_193
*371 regs/copt_h_inst_194
*372 regs/copt_h_inst_195
*373 regs/copt_h_inst_196
*374 regs/copt_h_inst_197
*375 regs/copt_h_inst_198
*376 regs/copt_h_inst_199
*377 regs/copt_h_inst_200
*378 regs/copt_h_inst_201
*379 regs/copt_h_inst_202
*380 regs/copt_h_inst_203
*381 regs/copt_h_inst_204
*382 regs/copt_h_inst_205
*383 regs/copt_h_inst_206
*384 regs/copt_h_inst_207
*385 regs/copt_h_inst_208
*386 regs/copt_h_inst_209
*387 counter/copt_h_inst_210
*388 prescale/copt_h_inst_211
*389 prescale/copt_h_inst_212
*390 regs/copt_h_inst_213
*391 counter/copt_h_inst_214
*392 counter/copt_h_inst_215
*393 prescale/copt_h_inst_216
*394 prescale/copt_h_inst_217
*395 prescale/copt_h_inst_218
*396 prescale/copt_h_inst_219
*397 regs/copt_h_inst_220
*398 prescale/copt_h_inst_221
*399 prescale/copt_h_inst_222
*400 regs/copt_h_inst_223
*401 prescale/copt_h_inst_224
*402 xofiller!SHFILL1!x132000y100000
*403 xofiller!SHFILL3!x100000y100000
*404 xofiller!SHFILL3!x109600y100000
*405 xofiller!SHFILL3!x119200y100000
*406 xofiller!SHFILL1!x135200y100000
*407 xofiller!SHFILL3!x138400y100000
*408 xofiller!SHFILL3!x148000y100000
*409 xofiller!SHFILL3!x157600y100000
*410 xofiller!SHFILL3!x167200y100000
*411 xofiller!SHFILL3!x176800y100000
*412 xofiller!SHFILL3!x186400y100000
*413 xofiller!SHFILL3!x196000y100000
*414 xofiller!SHFILL2!x260000y100000
*415 xofiller!SHFILL1!x429600y100000
*416 xofiller!SHFILL1!x455200y100000
*417 xofiller!SHFILL2!x567200y100000
*418 xofiller!SHFILL3!x682400y100000
*419 xofiller!SHFILL2!x692000y100000
*420 xofiller!SHFILL3!x810400y100000
*421 xofiller!SHFILL3!x820000y100000
*422 xofiller!SHFILL3!x884000y100000
*423 xofiller!SHFILL1!x893600y100000
*424 xofiller!SHFILL3!x100000y128800
*425 xofiller!SHFILL3!x109600y128800
*426 xofiller!SHFILL3!x119200y128800
*427 xofiller!SHFILL3!x128800y128800
*428 xofiller!SHFILL3!x138400y128800
*429 xofiller!SHFILL3!x148000y128800
*430 xofiller!SHFILL1!x157600y128800
*431 xofiller!SHFILL3!x272800y128800
*432 xofiller!SHFILL3!x282400y128800
*433 xofiller!SHFILL3!x292000y128800
*434 xofiller!SHFILL3!x301600y128800
*435 xofiller!SHFILL3!x311200y128800
*436 xofiller!SHFILL1!x432800y100000
*437 xofiller!SHFILL1!x320800y128800
*438 xofiller!SHFILL1!x324000y128800
*439 xofiller!SHFILL1!x327200y128800
*440 xofiller!SHFILL1!x330400y128800
*441 xofiller!SHFILL1!x333600y128800
*442 xofiller!SHFILL1!x336800y128800
*443 xofiller!SHFILL1!x340000y128800
*444 xofiller!SHFILL1!x343200y128800
*445 xofiller!SHFILL1!x346400y128800
*446 xofiller!SHFILL1!x349600y128800
*447 xofiller!SHFILL1!x352800y128800
*448 xofiller!SHFILL3!x506400y128800
*449 xofiller!SHFILL3!x516000y128800
*450 xofiller!SHFILL3!x525600y128800
*451 xofiller!SHFILL2!x535200y128800
*452 xofiller!SHFILL3!x560800y128800
*453 xofiller!SHFILL3!x570400y128800
*454 xofiller!SHFILL2!x580000y128800
*455 xofiller!SHFILL3!x605600y128800
*456 xofiller!SHFILL2!x615200y128800
*457 xofiller!SHFILL2!x666400y128800
*458 xofiller!SHFILL3!x727200y128800
*459 xofiller!SHFILL3!x736800y128800
*460 xofiller!SHFILL3!x746400y128800
*461 xofiller!SHFILL3!x756000y128800
*462 xofiller!SHFILL3!x765600y128800
*463 xofiller!SHFILL3!x775200y128800
*464 xofiller!SHFILL3!x784800y128800
*465 xofiller!SHFILL2!x794400y128800
*466 xofiller!SHFILL3!x912800y128800
*467 xofiller!SHFILL3!x922400y128800
*468 xofiller!SHFILL3!x932000y128800
*469 xofiller!SHFILL3!x941600y128800
*470 xofiller!SHFILL3!x100000y157600
*471 xofiller!SHFILL3!x109600y157600
*472 xofiller!SHFILL3!x119200y157600
*473 xofiller!SHFILL3!x128800y157600
*474 xofiller!SHFILL3!x138400y157600
*475 xofiller!SHFILL3!x148000y157600
*476 xofiller!SHFILL3!x157600y157600
*477 xofiller!SHFILL3!x167200y157600
*478 xofiller!SHFILL3!x176800y157600
*479 xofiller!SHFILL3!x186400y157600
*480 xofiller!SHFILL3!x196000y157600
*481 xofiller!SHFILL3!x205600y157600
*482 xofiller!SHFILL1!x215200y157600
*483 xofiller!SHFILL1!x356000y128800
*484 xofiller!SHFILL1!x359200y128800
*485 xofiller!SHFILL1!x362400y128800
*486 xofiller!SHFILL3!x784800y157600
*487 xofiller!SHFILL3!x794400y157600
*488 xofiller!SHFILL3!x804000y157600
*489 xofiller!SHFILL2!x944800y157600
*490 xofiller!SHFILL3!x154400y186400
*491 xofiller!SHFILL1!x365600y128800
*492 xofiller!SHFILL1!x368800y128800
*493 xofiller!SHFILL1!x276000y186400
*494 xofiller!SHFILL3!x333600y186400
*495 xofiller!SHFILL3!x343200y186400
*496 xofiller!SHFILL3!x352800y186400
*497 xofiller!SHFILL2!x362400y186400
*498 xofiller!SHFILL1!x372000y128800
*499 xofiller!SHFILL1!x375200y128800
*500 xofiller!SHFILL1!x378400y128800
*501 xofiller!SHFILL1!x381600y128800
*502 xofiller!SHFILL1!x384800y128800
*503 xofiller!SHFILL1!x628000y186400
*504 xofiller!SHFILL1!x388000y128800
*505 xofiller!SHFILL3!x714400y186400
*506 xofiller!SHFILL3!x724000y186400
*507 xofiller!SHFILL1!x391200y128800
*508 xofiller!SHFILL1!x394400y128800
*509 xofiller!SHFILL3!x826400y186400
*510 xofiller!SHFILL3!x836000y186400
*511 xofiller!SHFILL3!x845600y186400
*512 xofiller!SHFILL3!x855200y186400
*513 xofiller!SHFILL3!x864800y186400
*514 xofiller!SHFILL3!x874400y186400
*515 xofiller!SHFILL3!x884000y186400
*516 xofiller!SHFILL1!x893600y186400
*517 xofiller!SHFILL3!x100000y215200
*518 xofiller!SHFILL3!x109600y215200
*519 xofiller!SHFILL3!x119200y215200
*520 xofiller!SHFILL3!x128800y215200
*521 xofiller!SHFILL3!x138400y215200
*522 xofiller!SHFILL3!x148000y215200
*523 xofiller!SHFILL2!x157600y215200
*524 xofiller!SHFILL2!x276000y215200
*525 xofiller!SHFILL3!x394400y215200
*526 xofiller!SHFILL3!x404000y215200
*527 xofiller!SHFILL3!x461600y215200
*528 xofiller!SHFILL1!x471200y215200
*529 xofiller!SHFILL1!x493600y215200
*530 xofiller!SHFILL3!x551200y215200
*531 xofiller!SHFILL3!x560800y215200
*532 xofiller!SHFILL1!x397600y128800
*533 xofiller!SHFILL1!x400800y128800
*534 xofiller!SHFILL1!x404000y128800
*535 xofiller!SHFILL3!x599200y215200
*536 xofiller!SHFILL3!x608800y215200
*537 xofiller!SHFILL3!x618400y215200
*538 xofiller!SHFILL3!x628000y215200
*539 xofiller!SHFILL3!x637600y215200
*540 xofiller!SHFILL3!x916000y215200
*541 xofiller!SHFILL3!x925600y215200
*542 xofiller!SHFILL3!x935200y215200
*543 xofiller!SHFILL2!x944800y215200
*544 xofiller!SHFILL2!x100000y244000
*545 xofiller!SHFILL3!x160800y244000
*546 xofiller!SHFILL3!x170400y244000
*547 xofiller!SHFILL3!x180000y244000
*548 xofiller!SHFILL3!x189600y244000
*549 xofiller!SHFILL3!x199200y244000
*550 xofiller!SHFILL3!x208800y244000
*551 xofiller!SHFILL3!x218400y244000
*552 xofiller!SHFILL3!x228000y244000
*553 xofiller!SHFILL1!x237600y244000
*554 xofiller!SHFILL3!x260000y244000
*555 xofiller!SHFILL3!x500000y244000
*556 xofiller!SHFILL3!x509600y244000
*557 xofiller!SHFILL3!x519200y244000
*558 xofiller!SHFILL2!x528800y244000
*559 xofiller!SHFILL3!x688800y244000
*560 xofiller!SHFILL1!x698400y244000
*561 xofiller!SHFILL2!x784800y244000
*562 xofiller!SHFILL3!x845600y244000
*563 xofiller!SHFILL3!x855200y244000
*564 xofiller!SHFILL3!x884000y244000
*565 xofiller!SHFILL1!x893600y244000
*566 xofiller!SHFILL3!x100000y272800
*567 xofiller!SHFILL3!x109600y272800
*568 xofiller!SHFILL3!x119200y272800
*569 xofiller!SHFILL3!x128800y272800
*570 xofiller!SHFILL3!x138400y272800
*571 xofiller!SHFILL3!x148000y272800
*572 xofiller!SHFILL3!x157600y272800
*573 xofiller!SHFILL3!x276000y272800
*574 xofiller!SHFILL3!x285600y272800
*575 xofiller!SHFILL1!x407200y128800
*576 xofiller!SHFILL1!x410400y128800
*577 xofiller!SHFILL1!x413600y128800
*578 xofiller!SHFILL1!x471200y128800
*579 xofiller!SHFILL3!x333600y272800
*580 xofiller!SHFILL3!x343200y272800
*581 xofiller!SHFILL3!x352800y272800
*582 xofiller!SHFILL3!x362400y272800
*583 xofiller!SHFILL1!x372000y272800
*584 xofiller!SHFILL3!x426400y272800
*585 xofiller!SHFILL3!x436000y272800
*586 xofiller!SHFILL3!x464800y272800
*587 xofiller!SHFILL2!x551200y272800
*588 xofiller!SHFILL3!x644000y272800
*589 xofiller!SHFILL3!x653600y272800
*590 xofiller!SHFILL3!x720800y272800
*591 xofiller!SHFILL3!x762400y272800
*592 xofiller!SHFILL1!x772000y272800
*593 xofiller!SHFILL3!x794400y272800
*594 xofiller!SHFILL3!x804000y272800
*595 xofiller!SHFILL3!x813600y272800
*596 xofiller!SHFILL2!x823200y272800
*597 xofiller!SHFILL3!x941600y272800
*598 xofiller!SHFILL3!x151200y301600
*599 xofiller!SHFILL2!x160800y301600
*600 xofiller!SHFILL3!x391200y301600
*601 xofiller!SHFILL2!x400800y301600
*602 xofiller!SHFILL1!x516000y301600
*603 xofiller!SHFILL1!x538400y301600
*604 xofiller!SHFILL3!x567200y301600
*605 xofiller!SHFILL3!x596000y301600
*606 xofiller!SHFILL3!x605600y301600
*607 xofiller!SHFILL3!x615200y301600
*608 xofiller!SHFILL2!x624800y301600
*609 xofiller!SHFILL3!x669600y301600
*610 xofiller!SHFILL3!x679200y301600
*611 xofiller!SHFILL3!x688800y301600
*612 xofiller!SHFILL3!x698400y301600
*613 xofiller!SHFILL3!x708000y301600
*614 xofiller!SHFILL1!x717600y301600
*615 xofiller!SHFILL2!x746400y301600
*616 xofiller!SHFILL3!x852000y301600
*617 xofiller!SHFILL3!x861600y301600
*618 xofiller!SHFILL3!x871200y301600
*619 xofiller!SHFILL3!x880800y301600
*620 xofiller!SHFILL3!x890400y301600
*621 xofiller!SHFILL3!x900000y301600
*622 xofiller!SHFILL3!x909600y301600
*623 xofiller!SHFILL3!x919200y301600
*624 xofiller!SHFILL3!x928800y301600
*625 xofiller!SHFILL3!x938400y301600
*626 xofiller!SHFILL1!x948000y301600
*627 xofiller!SHFILL3!x100000y330400
*628 xofiller!SHFILL3!x109600y330400
*629 xofiller!SHFILL3!x119200y330400
*630 xofiller!SHFILL1!x128800y330400
*631 xofiller!SHFILL2!x410400y330400
*632 xofiller!SHFILL1!x576800y330400
*633 xofiller!SHFILL3!x714400y330400
*634 xofiller!SHFILL3!x778400y330400
*635 xofiller!SHFILL3!x788000y330400
*636 xofiller!SHFILL3!x797600y330400
*637 xofiller!SHFILL3!x807200y330400
*638 xofiller!SHFILL3!x816800y330400
*639 xofiller!SHFILL2!x826400y330400
*640 xofiller!SHFILL2!x944800y330400
*641 xofiller!SHFILL1!x474400y128800
*642 xofiller!SHFILL1!x477600y128800
*643 xofiller!SHFILL1!x480800y128800
*644 xofiller!SHFILL1!x484000y128800
*645 xofiller!SHFILL1!x237600y157600
*646 xofiller!SHFILL3!x176800y359200
*647 xofiller!SHFILL3!x186400y359200
*648 xofiller!SHFILL3!x196000y359200
*649 xofiller!SHFILL3!x205600y359200
*650 xofiller!SHFILL3!x215200y359200
*651 xofiller!SHFILL3!x224800y359200
*652 xofiller!SHFILL2!x234400y359200
*653 xofiller!SHFILL1!x240800y157600
*654 xofiller!SHFILL1!x244000y157600
*655 xofiller!SHFILL1!x247200y157600
*656 xofiller!SHFILL3!x288800y359200
*657 xofiller!SHFILL3!x298400y359200
*658 xofiller!SHFILL2!x308000y359200
*659 xofiller!SHFILL1!x250400y157600
*660 xofiller!SHFILL1!x253600y157600
*661 xofiller!SHFILL1!x397600y359200
*662 xofiller!SHFILL1!x429600y359200
*663 xofiller!SHFILL3!x749600y359200
*664 xofiller!SHFILL3!x759200y359200
*665 xofiller!SHFILL1!x768800y359200
*666 xofiller!SHFILL1!x820000y359200
*667 xofiller!SHFILL3!x935200y359200
*668 xofiller!SHFILL2!x944800y359200
*669 xofiller!SHFILL1!x256800y157600
*670 xofiller!SHFILL3!x400800y388000
*671 xofiller!SHFILL2!x410400y388000
*672 xofiller!SHFILL3!x436000y388000
*673 xofiller!SHFILL3!x445600y388000
*674 xofiller!SHFILL3!x455200y388000
*675 xofiller!SHFILL3!x464800y388000
*676 xofiller!SHFILL3!x474400y388000
*677 xofiller!SHFILL3!x484000y388000
*678 xofiller!SHFILL3!x493600y388000
*679 xofiller!SHFILL1!x503200y388000
*680 xofiller!SHFILL3!x557600y388000
*681 xofiller!SHFILL3!x567200y388000
*682 xofiller!SHFILL3!x576800y388000
*683 xofiller!SHFILL3!x586400y388000
*684 xofiller!SHFILL3!x596000y388000
*685 xofiller!SHFILL3!x605600y388000
*686 xofiller!SHFILL3!x615200y388000
*687 xofiller!SHFILL3!x624800y388000
*688 xofiller!SHFILL3!x634400y388000
*689 xofiller!SHFILL1!x644000y388000
*690 xofiller!SHFILL3!x759200y388000
*691 xofiller!SHFILL1!x768800y388000
*692 xofiller!SHFILL3!x823200y388000
*693 xofiller!SHFILL3!x832800y388000
*694 xofiller!SHFILL3!x842400y388000
*695 xofiller!SHFILL3!x852000y388000
*696 xofiller!SHFILL3!x861600y388000
*697 xofiller!SHFILL3!x871200y388000
*698 xofiller!SHFILL3!x880800y388000
*699 xofiller!SHFILL2!x890400y388000
*700 xofiller!SHFILL1!x308000y416800
*701 xofiller!SHFILL3!x330400y416800
*702 xofiller!SHFILL3!x340000y416800
*703 xofiller!SHFILL1!x260000y157600
*704 xofiller!SHFILL1!x218400y186400
*705 xofiller!SHFILL1!x221600y186400
*706 xofiller!SHFILL1!x224800y186400
*707 xofiller!SHFILL1!x548000y416800
*708 xofiller!SHFILL3!x653600y416800
*709 xofiller!SHFILL3!x663200y416800
*710 xofiller!SHFILL3!x672800y416800
*711 xofiller!SHFILL3!x682400y416800
*712 xofiller!SHFILL1!x692000y416800
*713 xofiller!SHFILL3!x807200y416800
*714 xofiller!SHFILL3!x928800y416800
*715 xofiller!SHFILL3!x938400y416800
*716 xofiller!SHFILL1!x948000y416800
*717 xofiller!SHFILL3!x100000y445600
*718 xofiller!SHFILL1!x109600y445600
*719 xofiller!SHFILL3!x132000y445600
*720 xofiller!SHFILL3!x141600y445600
*721 xofiller!SHFILL1!x151200y445600
*722 xofiller!SHFILL3!x183200y445600
*723 xofiller!SHFILL2!x192800y445600
*724 xofiller!SHFILL3!x224800y445600
*725 xofiller!SHFILL3!x234400y445600
*726 xofiller!SHFILL3!x244000y445600
*727 xofiller!SHFILL3!x253600y445600
*728 xofiller!SHFILL3!x263200y445600
*729 xofiller!SHFILL3!x272800y445600
*730 xofiller!SHFILL1!x330400y445600
*731 xofiller!SHFILL3!x352800y445600
*732 xofiller!SHFILL3!x362400y445600
*733 xofiller!SHFILL1!x407200y445600
*734 xofiller!SHFILL1!x228000y186400
*735 xofiller!SHFILL1!x231200y186400
*736 xofiller!SHFILL1!x234400y186400
*737 xofiller!SHFILL3!x733600y445600
*738 xofiller!SHFILL3!x794400y445600
*739 xofiller!SHFILL3!x804000y445600
*740 xofiller!SHFILL3!x925600y445600
*741 xofiller!SHFILL3!x935200y445600
*742 xofiller!SHFILL2!x944800y445600
*743 xofiller!SHFILL3!x199200y474400
*744 xofiller!SHFILL1!x208800y474400
*745 xofiller!SHFILL1!x317600y474400
*746 xofiller!SHFILL2!x404000y474400
*747 xofiller!SHFILL3!x455200y474400
*748 xofiller!SHFILL3!x464800y474400
*749 xofiller!SHFILL3!x474400y474400
*750 xofiller!SHFILL3!x484000y474400
*751 xofiller!SHFILL2!x493600y474400
*752 xofiller!SHFILL3!x551200y474400
*753 xofiller!SHFILL3!x560800y474400
*754 xofiller!SHFILL3!x570400y474400
*755 xofiller!SHFILL3!x580000y474400
*756 xofiller!SHFILL3!x589600y474400
*757 xofiller!SHFILL1!x599200y474400
*758 xofiller!SHFILL3!x826400y474400
*759 xofiller!SHFILL3!x836000y474400
*760 xofiller!SHFILL3!x845600y474400
*761 xofiller!SHFILL3!x855200y474400
*762 xofiller!SHFILL3!x864800y474400
*763 xofiller!SHFILL3!x874400y474400
*764 xofiller!SHFILL3!x884000y474400
*765 xofiller!SHFILL3!x893600y474400
*766 xofiller!SHFILL3!x100000y503200
*767 xofiller!SHFILL3!x109600y503200
*768 xofiller!SHFILL1!x416800y186400
*769 xofiller!SHFILL1!x420000y186400
*770 xofiller!SHFILL1!x423200y186400
*771 xofiller!SHFILL3!x365600y503200
*772 xofiller!SHFILL3!x375200y503200
*773 xofiller!SHFILL1!x426400y186400
*774 xofiller!SHFILL1!x429600y186400
*775 xofiller!SHFILL2!x445600y503200
*776 xofiller!SHFILL2!x493600y503200
*777 xofiller!SHFILL1!x432800y186400
*778 xofiller!SHFILL1!x436000y186400
*779 xofiller!SHFILL1!x439200y186400
*780 xofiller!SHFILL2!x666400y503200
*781 xofiller!SHFILL3!x724000y503200
*782 xofiller!SHFILL3!x733600y503200
*783 xofiller!SHFILL3!x743200y503200
*784 xofiller!SHFILL3!x752800y503200
*785 xofiller!SHFILL2!x813600y503200
*786 xofiller!SHFILL3!x932000y503200
*787 xofiller!SHFILL3!x941600y503200
*788 xofiller!SHFILL1!x442400y186400
*789 xofiller!SHFILL1!x445600y186400
*790 xofiller!SHFILL1!x448800y186400
*791 xofiller!SHFILL1!x452000y186400
*792 xofiller!SHFILL1!x455200y186400
*793 xofiller!SHFILL1!x458400y186400
*794 xofiller!SHFILL1!x208800y532000
*795 xofiller!SHFILL3!x311200y532000
*796 xofiller!SHFILL1!x320800y532000
*797 xofiller!SHFILL1!x669600y186400
*798 xofiller!SHFILL1!x352800y532000
*799 xofiller!SHFILL3!x407200y532000
*800 xofiller!SHFILL1!x672800y186400
*801 xofiller!SHFILL1!x752800y186400
*802 xofiller!SHFILL3!x711200y532000
*803 xofiller!SHFILL3!x772000y532000
*804 xofiller!SHFILL3!x781600y532000
*805 xofiller!SHFILL3!x791200y532000
*806 xofiller!SHFILL1!x800800y532000
*807 xofiller!SHFILL3!x263200y560800
*808 xofiller!SHFILL3!x272800y560800
*809 xofiller!SHFILL3!x282400y560800
*810 xofiller!SHFILL3!x292000y560800
*811 xofiller!SHFILL2!x301600y560800
*812 xofiller!SHFILL1!x471200y560800
*813 xofiller!SHFILL3!x525600y560800
*814 xofiller!SHFILL3!x535200y560800
*815 xofiller!SHFILL3!x544800y560800
*816 xofiller!SHFILL1!x554400y560800
*817 xofiller!SHFILL1!x756000y186400
*818 xofiller!SHFILL1!x759200y186400
*819 xofiller!SHFILL1!x688800y560800
*820 xofiller!SHFILL1!x740000y560800
*821 xofiller!SHFILL1!x797600y560800
*822 xofiller!SHFILL3!x852000y560800
*823 xofiller!SHFILL3!x861600y560800
*824 xofiller!SHFILL1!x762400y186400
*825 xofiller!SHFILL1!x765600y186400
*826 xofiller!SHFILL1!x768800y186400
*827 xofiller!SHFILL3!x352800y589600
*828 xofiller!SHFILL1!x362400y589600
*829 xofiller!SHFILL3!x420000y589600
*830 xofiller!SHFILL2!x573600y589600
*831 xofiller!SHFILL3!x631200y589600
*832 xofiller!SHFILL3!x640800y589600
*833 xofiller!SHFILL3!x650400y589600
*834 xofiller!SHFILL3!x826400y589600
*835 xofiller!SHFILL3!x836000y589600
*836 xofiller!SHFILL1!x845600y589600
*837 xofiller!SHFILL3!x900000y589600
*838 xofiller!SHFILL3!x909600y589600
*839 xofiller!SHFILL3!x919200y589600
*840 xofiller!SHFILL3!x928800y589600
*841 xofiller!SHFILL3!x938400y589600
*842 xofiller!SHFILL1!x948000y589600
*843 xofiller!SHFILL3!x100000y618400
*844 xofiller!SHFILL3!x109600y618400
*845 xofiller!SHFILL3!x119200y618400
*846 xofiller!SHFILL3!x183200y618400
*847 xofiller!SHFILL3!x192800y618400
*848 xofiller!SHFILL3!x202400y618400
*849 xofiller!SHFILL3!x212000y618400
*850 xofiller!SHFILL3!x221600y618400
*851 xofiller!SHFILL2!x231200y618400
*852 xofiller!SHFILL3!x429600y618400
*853 xofiller!SHFILL1!x439200y618400
*854 xofiller!SHFILL1!x570400y215200
*855 xofiller!SHFILL1!x573600y215200
*856 xofiller!SHFILL1!x576800y215200
*857 xofiller!SHFILL1!x580000y215200
*858 xofiller!SHFILL1!x583200y215200
*859 xofiller!SHFILL1!x586400y215200
*860 xofiller!SHFILL1!x532000y618400
*861 xofiller!SHFILL2!x570400y618400
*862 xofiller!SHFILL3!x608800y618400
*863 xofiller!SHFILL3!x618400y618400
*864 xofiller!SHFILL2!x628000y618400
*865 xofiller!SHFILL3!x685600y618400
*866 xofiller!SHFILL3!x695200y618400
*867 xofiller!SHFILL3!x704800y618400
*868 xofiller!SHFILL3!x714400y618400
*869 xofiller!SHFILL3!x724000y618400
*870 xofiller!SHFILL3!x733600y618400
*871 xofiller!SHFILL3!x743200y618400
*872 xofiller!SHFILL1!x752800y618400
*873 xofiller!SHFILL3!x797600y618400
*874 xofiller!SHFILL3!x807200y618400
*875 xofiller!SHFILL3!x816800y618400
*876 xofiller!SHFILL3!x826400y618400
*877 xofiller!SHFILL3!x836000y618400
*878 xofiller!SHFILL3!x845600y618400
*879 xofiller!SHFILL3!x138400y647200
*880 xofiller!SHFILL3!x148000y647200
*881 xofiller!SHFILL3!x157600y647200
*882 xofiller!SHFILL1!x167200y647200
*883 xofiller!SHFILL3!x330400y647200
*884 xofiller!SHFILL3!x340000y647200
*885 xofiller!SHFILL2!x349600y647200
*886 xofiller!SHFILL3!x410400y647200
*887 xofiller!SHFILL3!x420000y647200
*888 xofiller!SHFILL3!x429600y647200
*889 xofiller!SHFILL3!x551200y647200
*890 xofiller!SHFILL3!x560800y647200
*891 xofiller!SHFILL1!x589600y215200
*892 xofiller!SHFILL1!x592800y215200
*893 xofiller!SHFILL1!x596000y215200
*894 xofiller!SHFILL1!x295200y272800
*895 xofiller!SHFILL1!x298400y272800
*896 xofiller!SHFILL1!x301600y272800
*897 xofiller!SHFILL1!x304800y272800
*898 xofiller!SHFILL2!x663200y647200
*899 xofiller!SHFILL1!x781600y647200
*900 xofiller!SHFILL3!x100000y676000
*901 xofiller!SHFILL3!x196000y676000
*902 xofiller!SHFILL3!x205600y676000
*903 xofiller!SHFILL3!x215200y676000
*904 xofiller!SHFILL3!x378400y676000
*905 xofiller!SHFILL3!x388000y676000
*906 xofiller!SHFILL3!x397600y676000
*907 xofiller!SHFILL3!x458400y676000
*908 xofiller!SHFILL2!x468000y676000
*909 xofiller!SHFILL2!x516000y676000
*910 xofiller!SHFILL2!x551200y676000
*911 xofiller!SHFILL1!x308000y272800
*912 xofiller!SHFILL1!x311200y272800
*913 xofiller!SHFILL1!x314400y272800
*914 xofiller!SHFILL3!x736800y676000
*915 xofiller!SHFILL1!x746400y676000
*916 xofiller!SHFILL3!x154400y704800
*917 xofiller!SHFILL1!x164000y704800
*918 xofiller!SHFILL3!x237600y704800
*919 xofiller!SHFILL3!x247200y704800
*920 xofiller!SHFILL3!x256800y704800
*921 xofiller!SHFILL3!x266400y704800
*922 xofiller!SHFILL3!x276000y704800
*923 xofiller!SHFILL3!x285600y704800
*924 xofiller!SHFILL1!x295200y704800
*925 xofiller!SHFILL3!x346400y704800
*926 xofiller!SHFILL3!x356000y704800
*927 xofiller!SHFILL1!x365600y704800
*928 xofiller!SHFILL1!x317600y272800
*929 xofiller!SHFILL1!x320800y272800
*930 xofiller!SHFILL1!x324000y272800
*931 xofiller!SHFILL1!x327200y272800
*932 xofiller!SHFILL1!x330400y272800
*933 xofiller!SHFILL1!x128800y359200
*934 xofiller!SHFILL1!x132000y359200
*935 xofiller!SHFILL1!x704800y704800
*936 xofiller!SHFILL1!x749600y704800
*937 xofiller!SHFILL1!x135200y359200
*938 xofiller!SHFILL1!x138400y359200
*939 xofiller!SHFILL1!x141600y359200
*940 xofiller!SHFILL3!x836000y704800
*941 xofiller!SHFILL3!x845600y704800
*942 xofiller!SHFILL3!x855200y704800
*943 xofiller!SHFILL3!x864800y704800
*944 xofiller!SHFILL3!x874400y704800
*945 xofiller!SHFILL3!x884000y704800
*946 xofiller!SHFILL3!x893600y704800
*947 xofiller!SHFILL3!x903200y704800
*948 xofiller!SHFILL3!x912800y704800
*949 xofiller!SHFILL3!x922400y704800
*950 xofiller!SHFILL3!x932000y704800
*951 xofiller!SHFILL3!x941600y704800
*952 xofiller!SHFILL1!x100000y733600
*953 xofiller!SHFILL3!x157600y733600
*954 xofiller!SHFILL1!x167200y733600
*955 xofiller!SHFILL3!x199200y733600
*956 xofiller!SHFILL3!x304800y733600
*957 xofiller!SHFILL3!x314400y733600
*958 xofiller!SHFILL3!x324000y733600
*959 xofiller!SHFILL2!x333600y733600
*960 xofiller!SHFILL1!x381600y733600
*961 xofiller!SHFILL3!x439200y733600
*962 xofiller!SHFILL3!x448800y733600
*963 xofiller!SHFILL2!x458400y733600
*964 xofiller!SHFILL3!x560800y733600
*965 xofiller!SHFILL3!x570400y733600
*966 xofiller!SHFILL3!x634400y733600
*967 xofiller!SHFILL3!x644000y733600
*968 xofiller!SHFILL1!x653600y733600
*969 xofiller!SHFILL3!x768800y733600
*970 xofiller!SHFILL3!x778400y733600
*971 xofiller!SHFILL3!x788000y733600